tf #
[JUNCTIONS]				
;ID              	Elev        	Demand      	Pattern         	
 V1_A            	1192.1413	0	                	;
 V1_B            	1192.1413	0	                	;
 D_2             	1183.5918	0	                	;
 D3              	1182.0358	#TT1D3#	T1              	;R9(400) / R9(420)
 A5              	1177.9496	0.02	                	;R9(320)
 D8              	1162.444	0	                	;
 V17_A           	1149.4851	0	                	;
 V17_B           	1149.4851	0	                	;
 D14             	1159.2151	#TT1D14#	T1              	;R8(980,990)
 D15             	1153.6738	#TT1D15#	T1              	;R8(960,970)
 D16             	1153.0951	0	                	;
 D18             	1142.4785	#TT1D18#	T1              	;R8(950)
 D19             	1138.3585	#TT1D19#	T1              	;R8(940)
 A10             	1157.2594	#TT1A10#	T1              	;R9(450)
 A13             	1146.0481	#TT1A13#	T1              	;R9(530)
 A19             	1130.8708	#TT1A19#	T1              	;R9(540)
 A24             	1119.22	#TT1A24#	T1              	;R9(550,560)
 A26             	1116.3677	0	                	;
 C1              	1178.33	#TT1C1#	T1              	;R9(310)
 C6              	1157.3	#TT1C6#	T1              	;R9(280,290,300,430,440)
 C8              	1147.0684	0	                	;
 V16_A           	1147.0684	0	                	;
 C12             	1147.8255	#TT1C12#	T1              	;R9(460)
 C18             	1155.0467	#TT1C18#	T1              	;R9(470)
 C21             	1157.9722	#TT1C21#	T1              	;R9(480,490)
 C23             	1157.4578	#TT1C23#	T1              	;R9(500,510,520)
 C26             	1141.1006	#TT1C26#	T1              	;R9(230,240,250,260,270)
 C30             	1136.651	#TT1C30#	T1              	;R9(70,80)
 C34             	1122.1397	#TT1C34#	T1              	;R9(90,100,110,120,210,220)
 C36             	1106.778	#TT1C36#	T1              	;R9(130,140,150,160,170,180,190,200)
 C39             	1133.8273	0	                	;
 C43             	1114.861	#TT1C43#	T1              	;
 V15_B           	1178.3303	0	                	;
 V8_B            	1178.3303	0	                	;
 B2              	1168.9539	#TT1B2#	T1              	;R9(330)
 B5              	1162.4296	0	                	;
 B7              	1172.4852	#TT1B7#	T1              	;R9(340,350,360,370)
 V9_A            	1162.9301	0	                	;
 V9_B            	1162.9301	0	                	;
 B12             	1143.4296	0	                	;
 B18             	1125.3023	#TT1B18#	T1              	;R8(1000)
 V10_A           	1124.0643	#TT1V10_A#	T1              	;R8(1130,1140,1150)
 V10-11          	1124.0643	0	                	;
 V11_B           	1124.0643	#TT1V11_B#	T1              	;R8(1120)
 B70             	1124.882	#TT1B70#	T1              	;R8(1080,1090,1100,1110)
 B71             	1127.7315	#TT1B71#	T1              	;R8(1020,1030,1040,1050,1060,1070)
 B73             	1132.2751	#TT1B73#	T1              	;R8(900,930,1010)
 B77             	1122.9271	#TT1B77#	T1              	;R8(850,860,870,880,890)
 B80             	1117.7401	#TT1B80#	T1              	;R8(810,820,830,840)
 B82             	1112.7827	#TT1B82#	T1              	;R8(780,790,800)
 B76             	1136.1735	#TT1B76#	T1              	;R8(910,920)
 B23             	1116.5086	#TT1B23#	T1              	;R8(1160,1170,1180,1190)
 V12_B           	1110.6217	#TT1V12_B#	T1              	;R8(720,730,740,750)
 V12_A           	1110.6217	#TT1V12_A#	T1              	;R8(1200,1210)
 B30             	1110.2824	#TT1B30#	T1              	;R8(760,770)
 B34             	1103.6909	#TT1B34#	T1              	;R8(590,600,610)
 B35             	1099.9208	#TT1B35#	T1              	;R8(570,580)
 V13_A           	1103.0415	0	                	;
 V13_B           	1103.0415	0	                	;
 B26             	1103.8053	#TT1B26#	T1              	;R8(670,680,690,700,710)
 B27             	1109.1807	#TT1B27#	T1              	;R8(620,630,640,650,660)
 B37             	1093.9109	#TT1B37#	T1              	;R8(540,550,560,430)
 B49             	1091.3153	#TT1B49#	T1              	;R8(520,530)
 B51             	1098.9896	#TT1B51#	T1              	;R8(440)
 B53             	1108.5085	#TT1B53#	T1              	;R8(450,460,470)
 B58             	1113.2235	#TT1B58#	T1              	;R8(480,490,500,510)
 B40             	1089.0804	#TT1B40#	T1              	;R8(390,400,410,420)
 V14_A           	1085.1025	#TT1V14_A#	T1              	;R8(370,380)
 V14_B           	1085.1025	#TT1V14_B#	T1              	;R8(340,350,360)
 B42             	1082.2543	#TT1B42#	T1              	;R8(290,300,310,320,330)
 B44             	1077.032	#TT1B44#	T1              	;R8(280)
 B59             	1082.0183	#TT1B59#	T1              	;R8(230,240)
 B60             	1084.1161	#TT1B60#	T1              	;R8(250,260,270)
 B46             	1072.9966	#TT1B46#	T1              	;R8(210,220)
 B62             	1080.0547	#TT1B62#	T1              	;R8(30,40,50,60,70,160,170,180,190,200)
 B64             	1077.3446	#TT1B64#	T1              	;R8(150)
 B66             	1078.7046	#TT1B66#	T1              	;R8(80,90,100)
 B67             	1077.5296	#TT1B67#	T1              	;R8(120,130,140)
 B65             	1076.418	#TT1B65#	T1              	;R8(110)
 B48             	1070.0569	#TT1B48#	T1              	;R8(20)
 C41             	1118.8587	#TT1C41#	T1              	;R9(50,60)
 A27             	1116.6266	0	                	;
 V5_B            	1116.6266	0	                	;
 A33             	1101.0583	0	                	;
 A34             	1101.1183	#TT1A34#	T1              	;R4(410,420)
 A31             	1107.8226	0	                	;
 A36             	1109.1466	#TT1A36#	T1              	;R4(450,460,470,480,485,490)
 V6_A            	1106.4366	#TT1V6_A#	T1              	;R4(500)
 A37             	1106.4366	0	                	;
 A35             	1105.1382	#TT1A35#	T1              	;R4(430,440)
 A40             	1101.3254	#TT1A40#	T1              	;R4(340,350,360,370,380)
 A41             	1101.665	#TT1A41#	T1              	;R4(280,290,300,310,320,330)
 V7_A            	1099.7576	#TT1V7_A#	T1              	;R4(250,260,270)
 A42             	1099.7576	0	                	;
 A38             	1098.304	#TT1A38#	T1              	;R4(390,400)
 V18_B           	1112.8791	0	                	;
 A28_A           	1116.6266	0	                	;
 A29             	1113.4791	0	                	;
 V4_A            	1114.8791	0	                	;
 V3_A            	1114.6791	0	                	;
 T4_E1           	1115.2291	0	                	;Entrada 01, tanque 00004
 V19_A           	1092.445	0	                	;
 V19_B           	1092.445	0	                	;
 I.1             	1091.6221	0	                	;
 E6              	1080.6834	#TT2E6#	T2              	;R4(530)
 V20_A           	1078.301	0	                	;
 V20_B           	1078.301	0	                	;
 E9              	1062.75	#TT2E9#	T2              	;R4(980,990,995,1000,1010,1020,1030,1040,1050,1060,1070,1080)
 E7              	1078.0134	#TT2E7#	T2              	;R4(540,550,1140)
 E9.5            	1055.1279	#TT2E9_5#	T2              	;R4(930,940,950,960,970,1090,1100,1110)
 E10             	1048.6728	#TT2E10#	T2              	;R4(1180)
 E11             	1049.7823	0	                	;
 E13             	1057.8223	#TT2E13#	T2              	;R4(1120,1130,1150)
 V21_A           	1048.9991	0	                	;
 V21_B           	1048.9991	0	                	;
 E12             	1050.1739	#TT2E12#	T2              	;R4(1160,1170)
 E14             	1047.6798	#TT2E14#	T2              	;R4(780)
 E15             	1055.011	#TT2E15#	T2              	;R4(790,800,810,820,900,910,920)
 E16             	1057.91	#TT2E16#	T2              	;R4(830,840,850,860,870,880,890)
 V22_A           	1046.9637	#TT2V22_A#	T2              	;R4(770,760)
 V22_B           	1046.9637	0	                	;
 E18             	1044.2085	#TT2E18#	T2              	;R6(10,20,30)
 E20             	1045.3655	#TT2E20#	T2              	;R6(40,50,60,70,80,90,100,110)
 E21             	1050.5696	#TT2E21#	T2              	;R6(120,130,140,460)
 E23             	1053.266	#TT2E23#	T2              	;R6(150,160,170,180,190,200,210,360,430,440,450)
 E24             	1061.1067	#TT2E24#	T2              	;R6(370,420)
 E25             	1069.7146	#TT2E25#	T2              	;R6(380,390,400,410)
 E27             	1054.2123	#TT2E27#	T2              	;R6(220,230,240,250,260,270,340,350)
 E29             	1056.5715	#TT2E29#	T2              	;R6(280,290,300,330)
 E30             	1067.5184	#TT2E30#	T2              	;R6(310,320)
 E32             	1045.6151	#TT2E32#	T2              	;R6(470,480,490)
 E33             	1044.016	#TT2E33#	T2              	;R6(500,560)
 E35             	1039.9038	#TT2E35#	T2              	;R6(570,580,590), R7(20)
 E36             	1046.9905	#TT2E36#	T2              	;R6(510,520,530,540,550)
 V23_A           	1060.3776	#TT2V23_A#	T2              	;R6(600)
 V23_B           	1060.3776	#TT2V23_B#	T2              	;R6(780,790)
 E37             	1060.4711	#TT2E37#	T2              	;R6(800,810)
 E39             	1059.7666	#TT2E39#	T2              	;R6(610,620,760,770)
 E40             	1067.743	#TT2E40#	T2              	;R6(710,720,730,740,750)
 E42             	1059.7436	#TT2E42#	T2              	;R6(630)
 E43             	1059.743	#TT2E43#	T2              	;R6(640,650)
 E44             	1064.743	#TT2E44#	T2              	;R6(660,670,680,690,700)
 V25_A           	1112.1761	0	                	;
 V25_B           	1112.1761	0	                	;
 F4              	1111.5701	0	                	;
 V24             	1116.5266	0	                	;
 F5              	1109.6104	0	                	;
 F10             	1093.7714	0	                	;
 F13             	1087.009	#TT4F13#	T4              	;R5(530)
 F15             	1083.004	#TT4F15#	T4              	;R5(500,510,520)
 F17             	1080.4339	#TT4F17#	T4              	;R5(480,490)
 F18             	1095.9181	#TT4F18#	T4              	;R5(400,410,420,430,440,450,460,470)
 F21             	1080.4107	#TT4F21#	T4              	;R5(30,40,50,320,330,340,350), R3(550)
 F22             	1088.1318	#TT4F22#	T4              	;R5(60,70,80,90,260,270,280,290,300,310)
 F23             	1093.7979	#TT4F23#	T4              	;R5(100,110,120,190,200,210,220,230,240,250)
 F24             	1093.896	#TT4F24#	T4              	;R5(130,140,150,160,170,180)
 V26_A           	1112.1761	0	                	;
 V26_B           	1112.1761	0	                	;
 V27_B           	1111.5701	0	                	;
 V27_A           	1111.5701	0	                	;
 V28_A           	1093.6894	0	                	;
 V28_B           	1093.6894	0	                	;
 G8              	1099.0312	0	                	;
 H1              	1093.8444	0	                	;
 V41_B           	1093.8444	0	                	;
 H4              	1085.5401	0	                	;
 V33_A           	1084.3398	0	                	;
 V33_B           	1084.3398	#TT3V33_B#	T3              	;R4(240)
 H6              	1082.8935	#TT3H6#	T3              	;R4(210,220,230)
 H8              	1077.9861	#TT3H8#	T3              	;R4(180,190,200)
 V30_B           	1077.436	0	                	;
 H9              	1070.8295	#TT3H9#	T3              	;R4(120,130,140,150,160), R3(510,520,530,540)
 H11             	1063.7036	#TT3H11#	T3              	;R4(110), R3(480,490,500)
 H34             	1074.6601	#TT3H34#	T3              	;R3(560,570,580,590), R5(20)
 H36             	1073.2611	#TT3H36#	T3              	;R3(600,610,620,630,640,650)
 H39             	1069.186	#TT3H39#	T3              	;R3(660,670,10,20,30), R5(10), R8(10)
 H41             	1067.5439	#TT3H41#	T3              	;R3(40,50,60), R2(850,860)
 V34_A           	1063.6068	#TT3V34_A#	T3              	;R3(70,80,90,100,110), R2(840)
 V36_A           	1064.8116	0	                	;
 V36_B           	1064.8116	#TT3V36_B#	T3              	;R2(1210,1220,1230)
 H55             	1067.1577	#TT3H55#	T3              	;R2(780,790,800,810,820,830,1170,1180,1190,1200)
 H58             	1068.0248	#TT3H58#	T3              	;R2(720,730,740,750,760,770,1100,1110,1120,1130,1140,1150,1160)
 H61             	1068.0776	#TT3H61#	T3              	;R2(640,650,660,670,680,690,700,710,1060,1070,1080,1090)
 H64             	1065.9241	#TT3H64#	T3              	;R2(620,630,410,420,430,440,450,460,470,1050)
 H78             	1061.268	#TT3H78#	T3              	;R2(480,610)
 H79             	1056.7616	#TT3H79#	T3              	;R2(590,600)
 V38_A           	1051.6477	#TT3V38_A#	T3              	;R2(490,500,510)
 V38_B           	1051.6477	0	                	;
 H81             	1052.234	#TT3H81#	T3              	;R2(520,570,580)
 H82             	1051.234	#TT3H82#	T3              	;R2(530,540,550,560)
 V39_A           	1054.3991	0	                	;
 V39_B           	1054.3991	#TT3V39_B#	T3              	;R1(1350,1360,1370,1380,1390,1400,1410,1420,1430)
 H67             	1062.2238	#TT3H67#	T3              	;R2(1010,1020,1030,1040,390,400)
 H70             	1057.7263	#TT3H70#	T3              	;R2(940,950,960,970,980,990,1000,360,370,380)
 H73             	1053.7783	#TT3H73#	T3              	;R2(900,910,920,930,350)
 H75             	1051.423	#TT3H75#	T3              	;R2(870,880,890)
 V37_A           	1050.404	0	                	;
 V37_B           	1050.404	0	                	;
 V35_B           	1050.2893	#TT3V35_B#	T3              	;R3(280,290)
 V35_A           	1050.2893	0	                	;
 V34_B           	1063.6068	#TT3V34_B#	T3              	;R3(120)
 H43             	1061.1567	#TT3H43#	T3              	;R3(130,140), R2(1240,1250,1260)
 H44             	1058.6685	#TT3H44#	T3              	;R3(150,160,170,180,190), R2(1270,1280)
 H45             	1056.2664	#TT3H45#	T3              	;R3(200,210,220,230), R2(1290,1300)
 H47             	1053.107	#TT3H47#	T3              	;R3(240,250,260,270), R2(1310,1320)
 H49             	1048.7327	#TT3H49#	T3              	;R3(300,310,320)
 H50             	1045.6493	#TT3H50#	T3              	;R3(330,340,350), R2(340)
 H52             	1043.1891	#TT3H52#	T3              	;R3(360)
 H17             	1042.8157	#TT3H17#	T3              	;R3(370)
 V31_B           	1043.1703	0	                	;
 V32_A           	1042.9549	#TT3V32_A#	T3              	;R4(740,750,10)
 H15             	1053.492	#TT3H15#	T3              	;R3(380,390,400,410,420), R4(20,30,40,50,60)
 H13             	1060.3181	#TT3H13#	T3              	;R3(430,440,450), R4(70,80,90)
 H12             	1063.7036	#TT3H12#	T3              	;R3(460,470), R4(100)
 H29             	1078.0492	#TT3H29#	T3              	;R4(510,520,560,570)
 H27             	1072.5646	#TT3H27#	T3              	;R4(580,590,600,610)
 H25             	1066.2836	#TT3H25#	T3              	;R3(620,630)
 H22             	1058.0042	#TT3H22#	T3              	;R4(640,650,660,670,680)
 H20             	1051.0558	#TT3H20#	T3              	;R4(690,700,710)
 H18             	1045.609	#TT3H18#	T3              	;R4(720,730)
 I3              	1085.8901	0	                	;
 I.6             	1066.4134	0	                	;
 I.12            	1045.4337	0	                	;
 V42_A           	1042.689	0	                	;
 V42_B           	1042.689	0	                	;
 I.40            	1042.9625	0	                	;
 V54_B           	1043.7125	#TT3V54_B#	T3              	;R1(430)
 V43_A           	1041.7929	0	                	;
 V43_B           	1041.7929	#TT3V43_B#	T3              	;R7(10)
 I.14            	1039.7275	#TT3I_14#	T3              	;R7(40,50)
 I.94            	1039.7339	#TT3I_94#	T3              	;R7(30)
 I.15            	1039.3214	#TT3I_15#	T3              	;R7(60,70,80,660,670)
 I.16            	1038.092	#TT3I_16#	T3              	;R7(90,100,110,120,130)
 V44_A           	1037.8533	0	                	;
 V44_B           	1037.8533	#TT3V44_B#	T3              	;R7(140,370)
 V45_A           	1039.5167	#TT3V45_A#	T3              	;R7(380,390,640,650)
 V45_B           	1039.5167	#TT3V45_B#	T3              	;R7(400,410,620,630)
 I.36            	1045.1513	#TT3I_36#	T3              	;R7(420,430,500,510,520,600,610)
 I.37            	1044.949	#TT3I_37#	T3              	;R7(440,450,460,470,480,490)
 I.39            	1049.849	#TT3I_39#	T3              	;R7(530,540,580,590)
 V46_A           	1053.7739	#TT3V46_A#	T3              	;R7(550,560,570)
 V46_B           	1053.7739	0	                	;
 I.18            	1035.8242	#TT3I_18#	T3              	;R7(360)
 I.23            	1031.6155	#TT3I_23#	T3              	;R7(150)
 I.24            	1029.3412	#TT3I_24#	T3              	;R7(160)
 I.25            	1028.227	#TT3I_25#	T3              	;R7(170)
 I.27            	1027.0128	#TT3I_27#	T3              	;R7(180,190,340,350)
 I.31            	1025.2976	#TT3I_31#	T3              	;R7(260,270,280,290,300)
 I.29            	1025.8534	#TT3I_29#	T3              	;R7(200,210,220,230,240,250,330)
 I.33            	1025.2216	#TT3I_33#	T3              	;R7(310,320)
 I.84            	1037.8055	#TT3I_84#	T3              	;R1(310,320,330,120)
 V55_B           	1037.769	0	                	;
 V56_A           	1037.8108	0	                	;
 V56_B           	1037.8108	#TT3V56_B#	T3              	;R1(100,110)
 I.79            	1039.1726	#TT3I_79#	T3              	;R1(380,390,400,410,420)
 I.82            	1038.4656	#TT3I_82#	T3              	;R1(340,350,360,370)
 I.90            	1036.3392	#TT3I_90#	T3              	;R1(80,90)
 I.92            	1034.985	#TT3I_92#	T3              	;R1(50,60,70)
 I.93            	1035.027	#TT3I_93#	T3              	;R1(10,20,30,40)
 I.87            	1036.3831	#TT3I_87#	T3              	;R1(140,150,160,170,180,250,260,270,280)
 I.88            	1034.906	#TT3I_88#	T3              	;R1(190,200,210,220,230,240)
 I.85            	1037.2588	#TT3I_85#	T3              	;R1(290,300,130)
 V47_A           	1044.5031	#TT3V47_A#	T3              	;R1(450)
 V47_B           	1044.5031	0	                	;
 I.42            	1044.0927	#TT3I_42#	T3              	;R1(460,470,480,490), R2(290,300,310,320,330)
 I.41            	1043.7328	#TT3I_41#	T3              	;R1(440)
 I.44            	1043.1473	#TT3I_44#	T3              	;R1(500,510), R2(270,280)
 V48_A           	1042.7444	#TT3V48_A#	T3              	;R1(520), R2(150,160)
 V48_B           	1042.7444	0	                	;
 V52_B           	1042.7444	#TT3V52_B#	T3              	;R1(530)
 V49_A           	1042.8715	0	                	;
 V49_B           	1042.8715	#TT3V49_B#	T3              	;R1(1080,1090,1100), R2(100,140)
 V53_A           	1044.2674	0	                	;
 V53_B           	1044.2674	#TT3V53_B#	T3              	;R2(260)
 I.77            	1045.799	#TT3I_77#	T3              	;R2(170,180,190,200,210,220,230,240,250)
 I.65            	1039.7052	#TT3I_65#	T3              	;R1(540,550,560,570,960,1050,1060,1070)
 I.66            	1036.944	#TT3I_66#	T3              	;R1(970,980,990,1030,1040)
 I.67            	1040.844	#TT3I_67#	T3              	;R1(1000,1010,1020)
 I.69            	1038.0967	#TT3I_69#	T3              	;R1(580,590,600,610,920,930,940,950)
 I.71            	1035.6291	#TT3I_71#	T3              	;R1(620,630,640,650,660,670,680,900,910)
 I.73            	1034.3538	#TT3I_73#	T3              	;R1(690,70,710,720,860,870,880,890)
 I.75            	1033.085	#TT3I_75#	T3              	;R1(730,740,750,820,830,840,850)
 I.76            	1032.2202	#TT3I_76#	T3              	;R1(760,770,780,790,800,810)
 I.46            	1042.8608	#TT3I_46#	T3              	;R1(1110,1120,1130), R2(50,60,70,80)
 I.48            	1041.0172	#TT3I_48#	T3              	;R1(1140,1150,1160)
 I.49            	1039.6548	#TT3I_49#	T3              	;R1(1200,1210,1220,1230,1240,1250)
 V51_B           	1039.7223	#TT3V51_B#	T3              	;R2(10)
 I.58            	1040.7632	#TT3I_58#	T3              	;R2(20,30,40)
 V51_A           	1039.7223	0	                	;
 I.51            	1047.4934	#TT3I_51#	T3              	;R1(1260,1270,1280,1540)
 I.53            	1051.7724	#TT3I_53#	T3              	;R1(1290,1530)
 I.56            	1048.9091	#TT3I_56#	T3              	;R1(1440,1450,1460,1470,1480,1490,1500,1510,1520)
 I.57            	1056.6499	#TT3I_57#	T3              	;R1(1300,1310,1320,1330,1340)
 ET1_B           	1179.2403	0	                	;
 ET1_A           	1179.2403	0	                	;
 V5_A            	1116.6266	0	                	;
 V6_B            	1106.4366	0	                	;
 V7_B            	1099.7576	0	                	;
 V2_A            	1116.6266	0	                	;
 V2_B            	1116.6266	0	                	;
 V16_B           	1147.0684	0	                	;
 ST00004            	1112.2791	0	                	;
 ET00003            	1099.0312	0	                	;
 V29_B           	1096.9312	0	                	;
 V29_A           	1096.9312	0	                	;
 V30_A           	1077.436	0	                	;
 V31_A           	1043.1703	0	                	;
 V32_B           	1042.9549	0	                	;
 V40_A           	1096.9312	0	                	;
 V40_B           	1096.9312	0	                	;
 V50_A           	1039.4747	0	                	;
 V50_B           	1039.4747	#TT3V50_B#	T3              	;R1(1170,1180,1190)
 I.62            	1043.0006	#TT3I_62#	T3              	;R2(90,110,120,130)
 V52_A           	1042.7444	0	                	;
 V54_A           	1043.7125	0	                	;
 V55_A           	1037.769	0	                	;
 V57_B           	1192.1413	0	                	;
 V58_A           	1081.0787	0	                	;
 V58_B           	1081.0787	#TT4V58_B#	T4              	;R5(370,380,390)
 V59_A           	1080.433	0	                	;
 V59_B           	1080.433	#TT4V59_B#	T4              	;R5(360), R4(170)
 Macro_A         	1192.1413	0	                	;
 Macro_B         	1192.1413	0	                	;
1	1162.9301	0	                	;
2	1162.9301	0	                	;

[RESERVOIRS]
;ID              	Head        	Pattern         
 C_Contacto      	1194.7393   	                	;30 cm del borde superior al nivel máximo

[TANKS]
;ID              	Elevation   	InitLevel   	MinLevel    	MaxLevel    	Diameter    	MinVol      	VolCurve
 TANQUE1         	1178.4103   	1.958       	0           	2.085       	5.8306      	0           	                	;
 TANQUE2         	1113.1391   	1.805       	0           	1.928       	7.2207      	0           	                	;
 TANQUE4         	1112.5291   	2.14        	0           	2.64        	9.8163      	0           	                	;
 TANQUE3         	1096.9312   	1.873       	0           	1.90        	6.0345      	0           	                	;

[PIPES]								
;ID              	Node1           	Node2           	Length      	Diameter    	Roughness   	MinorLoss   	Status	
T2	V1_B	A5	97.03	84.66	#cc141#	#kkkkT2#	Open	;Codos(3)+Tlat(1)				
T85	D_2	D3	12.1	45.97	#cc141#	#kkkkT85#	Open	;Reducción				
T86	D3	D8	162.34	31.8	#cc141#	#kkkkT86#	Open	;Codo(1)				
T87	D8	V17_A	115.5	31.8	#cc141#	#kkkkT87#	Open	;				
T88	V17_B	D14	59.87	31.8	#cc141#	#kkkkT88#	Open	;Codo45(2)				
T89	D14	D15	18.83	31.8	#cc141#	#kkkkT89#	Open	;				
T90	D15	D16	28.01	31.8	#cc141#	#kkkkT90#	Open	;				
T91	D16	D18	57.49	25.15	#cc141#	#kkkkT91#	Open	;				
T92	D18	D19	53.16	25.15	#cc141#	#kkkkT92#	Open	;				
T3	A5	A10	156.66	84.66	#cc141#	#kkkkT3#	Open	;				
T4	A10	A13	72.43	84.66	#cc141#	#kkkkT4#	Open	;Codo45(1)				
T5	A13	A19	132.39	84.66	#cc141#	#kkkkT5#	Open	;Curvas	-4			
T6	A19	A24	92.29	84.66	#cc141#	#kkkkT6#	Open	;				
T7	A24	A26	33.63	84.66	#cc141#	#kkkkT7#	Open	;Codo(1)				
T70	C1	C6	145.54	45.97	#cc141#	#kkkkT70#	Open	;				
T71	C6	V16_A	58.91	45.97	#cc141#	#kkkkT71#	Open	;				
T73	C8	C12	42.03	31.8	#cc141#	#kkkkT73#	Open	;				
T74	C12	C18	128.21	31.8	#cc141#	#kkkkT74#	Open	;				
T75	C18	C21	72.06	31.8	#cc141#	#kkkkT75#	Open	;				
T76	C21	C23	51	31.8	#cc141#	#kkkkT76#	Open	;				
T77	C8	C26	37.54	31.8	#cc141#	#kkkkT77#	Open	;Codo				
T78	C26	C30	80.42	31.8	#cc141#	#kkkkT78#	Open	;Tbil(1)	+	Red(1)		
T79	C30	C34	60.85	31.8	#cc141#	#kkkkT79#	Open	;Red(1)				
T80	C34	C36	59.1	25.15	#cc141#	#kkkkT80#	Open	;				
T81	C30	C39	47.19	25.15	#cc141#	#kkkkT81#	Open	;Codo	+	Red		
T69	V15_B	C1	12	45.97	#cc141#	#kkkkT69#	Open	;Codo(2)				
T28	V8_B	B2	50.89	69.55	#cc141#	#kkkkT28#	Open	;Codo(1)				
T29	B2	B5	86	69.55	#cc141#	#kkkkT29#	Open	;Tlat	+	Red(1)		
T30	B5	B7	62.84	25.15	#cc141#	#kkkkT30#	Open	;				
T31	B5	V9_A	9.61	69.55	#cc141#	#kkkkT31#	Open	;				
T32	V9_B	B12	98.77	69.55	#cc141#	#kkkkT32#	Open	;Codos(2)	+	Red(1)		
T33	B12	B18	111.66	57.45	#cc141#	#kkkkT33#	Open	;Red(1)				
T34	B18	V10_A	38.17	45.97	#cc141#	#kkkkT34#	Open	;Tbil(1)+	Red(1)			
T62	V11_B	B70	62.1	31.8	#cc141#	#kkkkT62#	Open	;				
T63	B70	B71	25.16	31.8	#cc141#	#kkkkT63#	Open	;				
T64	B71	B73	30.34	31.8	#cc141#	#kkkkT64#	Open	;Tlat(1)	+	red(2)		
T65	B73	B76	82.02	19.76	#cc141#	#kkkkT65#	Open	;				
T66	B73	B77	26.69	25.15	#cc141#	#kkkkT66#	Open	;				
T67	B77	B80	31.47	25.15	#cc141#	#kkkkT67#	Open	;				
T68	B80	B82	46.27	25.15	#cc141#	#kkkkT68#	Open	;				
T35	V10-11	B23	42.73	45.97	#cc141#	#kkkkT35#	Open	;				
T36	B23	V12_A	48.73	45.97	#cc141#	#kkkkT36#	Open	;Tlat(1)	+	Red(2)+Codo45(1)		
T41	V12_B	B30	44.83	31.8	#cc141#	#kkkkT41#	Open	;				
T42	B30	B34	50.69	31.8	#cc141#	#kkkkT42#	Open	;Codo45(2)				
T40	V13_B	B35	8.59	25.15	#cc141#	#kkkkT40#	Open	;Red(1)				
T43	B34	B35	30.24	31.8	#cc141#	#kkkkT43#	Open	;Tlat(1)	+	red(1)		
T37	V12_B	B26	34.68	25.15	#cc141#	#kkkkT37#	Open	;Codo(1)				
T38	B26	B27	28.51	25.15	#cc141#	#kkkkT38#	Open	;				
T39	B27	V13_A	18.55	25.15	#cc141#	#kkkkT39#	Open	;				
T44	B35	B37	55.34	31.8	#cc141#	#kkkkT44#	Open	;Tlat	+	red		
T51	B37	B49	44.08	25.15	#cc141#	#kkkkT51#	Open	;				
T52	B49	B51	75.46	25.15	#cc141#	#kkkkT52#	Open	;				
T53	B51	B53	48.96	25.15	#cc141#	#kkkkT53#	Open	;				
T54	B53	B58	105.66	25.15	#cc141#	#kkkkT54#	Open	;				
T45	B37	B40	55.22	31.8	#cc141#	#kkkkT45#	Open	;				
T46	B40	V14_A	40.2	31.8	#cc141#	#kkkkT46#	Open	;				
T47	V14_B	B42	30.13	31.8	#cc141#	#kkkkT47#	Open	;				
T48	B42	B44	37.37	31.8	#cc141#	#kkkkT48#	Open	;Tlat(1)	+	Red(1)		
T55	B44	B59	15.81	25.15	#cc141#	#kkkkT55#	Open	;Red(1)				
T49	B44	B46	29.29	31.8	#cc141#	#kkkkT49#	Open	;Tlat(1)	+	Red(1)		
T57	B46	B62	42.69	31.8	#cc141#	#kkkkT57#	Open	;				
T58	B62	B64	38.1	31.8	#cc141#	#kkkkT58#	Open	;				
T59	B64	B65	4.99	31.8	#cc141#	#kkkkT59#	Open	;Tlat				
T60	B65	B66	16.85	31.8	#cc141#	#kkkkT60#	Open	;				
T61	B65	B67	18.03	31.8	#cc141#	#kkkkT61#	Open	;				
T50	B46	B48	29.15	25.15	#cc141#	#kkkkT50#	Open	;				
T82	C39	C41	59.24	19.76	#cc141#	#kkkkT82#	Open	;				
T83	C41	C43	52.6	19.76	#cc141#	#kkkkT83#	Open	;				
T8	A26	A27	8.6	84.66	#cc141#	#kkkkT8#	Open	;Tlat	+	Red(2)		
T12	A33	A34	35.5	45.97	#cc141#	#kkkkT12#	Open	;Tlat(1)	+	red(1)		
T10	V5_B	A31	38.85	45.97	#cc141#	#kkkkT10#	Open	;Codos(3)				
T11	A31	A33	36.64	45.97	#cc141#	#kkkkT11#	Open	;Codo(1)				
T15	A36	V6_A	33.61	45.97	#cc141#	#kkkkT15#	Open	;				
T13	A34	A35	26.31	45.97	#cc141#	#kkkkT13#	Open	;				
T14	A35	A36	30.27	45.97	#cc141#	#kkkkT14#	Open	;				
T19	A40	A41	26	40.15	#cc141#	#kkkkT19#	Open	;				
T20	A41	V7_A	33.55	40.15	#cc141#	#kkkkT20#	Open	;				
T17	A34	A38	25.65	40.15	#cc141#	#kkkkT17#	Open	;Codo(1)				
T18	A38	A40	32.15	40.15	#cc141#	#kkkkT18#	Open	;				
T93	V18_B	A37	38.78	69.55	#cc143#	#kkkkT93#	Open	;Codos(2)	+	Red	+	Tlat
T94	A37	A42	39.55	69.55	#cc143#	#kkkkT94#	Open	;Tlat	+	red		
T27	A29	V4_A	3.5	57.45	#cc141#	#kkkkT27#	Open	;Codo(2)	,	Vcom(1)		
T25	A28_A	A29	15	57.45	#cc141#	#kkkkT25#	Open	;Codo(3),	Tlat	-2		
T26	A29	V3_A	2	57.45	#cc141#	#kkkkT26#	Open	;Codo(1),	Vcom(1)			
T24	A28_A	T4_E1	17	57.45	#cc141#	#kkkkT24#	Open	;Codos(2)				
T95	A42	V19_A	44.01	69.55	#cc143#	#kkkkT95#	Open	;Tlat	desconocido			
T204	V19_B	I.1	9.54	57.45	#cc141#	#kkkkT204#	Open	;Tlat				
T96	V19_A	E6	72.04	69.55	#cc143#	#kkkkT96#	Open	;Tlat	desconocido			
T97	E6	E7	60.06	45.97	#cc143#	#kkkkT97#	Open	;				
T98	E6	V20_A	11.84	69.55	#cc143#	#kkkkT98#	Open	;				
T99	V20_B	E9	34.6	69.55	#cc143#	#kkkkT99#	Open	;Codo(2)				
T100	E9	E9.5	46.65	69.55	#cc143#	#kkkkT100#	Open	;				
T101	E9.5	E10	39.5077	69.55	#cc143#	#kkkkT101#	Open	;Tbil				
T102	E10	V21_A	5.01	69.55	#cc143#	#kkkkT102#	Open	;Red				
T103	V21_B	E11	12.03	31.8	#cc143#	#kkkkT103#	Open	;Tlat	desconocido			
T104	E11	E12	6.01	31.8	#cc143#	#kkkkT104#	Open	;				
T105	E11	E13	53.01	25.15	#cc143#	#kkkkT105#	Open	;				
T106	E10	E14	21.02	69.55	#cc143#	#kkkkT106#	Open	;Tlat	+	red		
T107	E14	E15	35.76	40.15	#cc143#	#kkkkT107#	Open	;Codo				
T108	E15	E16	33.13	40.15	#cc143#	#kkkkT108#	Open	;				
T109	E14	V22_A	36.81	69.55	#cc143#	#kkkkT109#	Open	;Red				
T110	V22_B	E18	23.7	40.15	#cc143#	#kkkkT110#	Open	;Codo+	tlat	+	red	
T111	E18	E20	42.78	31.8	#cc143#	#kkkkT111#	Open	;Codo				
T112	E20	E21	16.83	31.8	#cc143#	#kkkkT112#	Open	;Tbil				
T113	E21	E23	39.1	31.8	#cc143#	#kkkkT113#	Open	;tlat	desconocido			
T114	E23	E24	22.42	19.76	#cc143#	#kkkkT114#	Open	;				
T115	E24	E25	18.17	19.76	#cc143#	#kkkkT115#	Open	;				
T116	E23	E27	27.02	31.8	#cc143#	#kkkkT116#	Open	;				
T117	E27	E29	26.11	31.8	#cc143#	#kkkkT117#	Open	;Red				
T118	E29	E30	41.47	25.15	#cc143#	#kkkkT118#	Open	;				
T119	E21	E32	30.41	31.8	#cc143#	#kkkkT119#	Open	;tlat				
T120	E32	E33	10.13	31.8	#cc143#	#kkkkT120#	Open	;Tlat				
T121	E33	E35	45.19	31.8	#cc143#	#kkkkT121#	Open	;				
T122	E33	E36	26.17	31.8	#cc143#	#kkkkT122#	Open	;				
T123	E32	V23_A	34.34	31.8	#cc143#	#kkkkT123#	Open	;Tbil				
T124	V23_B	E37	4.5	31.8	#cc143#	#kkkkT124#	Open	;				
T125	V23_B	E39	23.51	31.8	#cc143#	#kkkkT125#	Open	;				
T126	E39	E40	32.01	31.8	#cc143#	#kkkkT126#	Open	;				
T127	E39	E42	24	31.8	#cc143#	#kkkkT127#	Open	;Tlat	+	red		
T128	E42	E43	5	31.8	#cc143#	#kkkkT128#	Open	;				