[JUNCTIONS]				
;ID              	Elev        	Demand      	Pattern         	
 V1_A            	1192.1413	0	                	;
 V1_B            	1192.1413	0	                	;
 D_2             	1183.5918	0	                	;
 D3              	1182.0358	.022672	T1              	;R9(400) / R9(420)
 A5              	1177.9496	0.02	                	;R9(320)
 D8              	1162.444	0	                	;
 V17_A           	1149.4851	0	                	;
 V17_B           	1149.4851	0	                	;
 D14             	1159.2151	.0289854	T1              	;R8(980,990)
 D15             	1153.6738	.0323592	T1              	;R8(960,970)
 D16             	1153.0951	0	                	;
 D18             	1142.4785	.0084272	T1              	;R8(950)
 D19             	1138.3585	.0084272	T1              	;R8(940)
 A10             	1157.2594	.0100000	T1              	;R9(450)
 A13             	1146.0481	.0150000	T1              	;R9(530)
 A19             	1130.8708	.0025500	T1              	;R9(540)
 A24             	1119.22	.0154750	T1              	;R9(550,560)
 A26             	1116.3677	0	                	;
 C1              	1178.33	.038475	T1              	;R9(310)
 C6              	1157.3	.059307	T1              	;R9(280,290,300,430,440)
 C8              	1147.0684	0	                	;
 V16_A           	1147.0684	0	                	;
 C12             	1147.8255	.0050000	T1              	;R9(460)
 C18             	1155.0467	.0193582	T1              	;R9(470)
 C21             	1157.9722	.0218564	T1              	;R9(480,490)
 C23             	1157.4578	.0445548	T1              	;R9(500,510,520)
 C26             	1141.1006	.0858488	T1              	;R9(230,240,250,260,270)
 C30             	1136.651	.0358731	T1              	;R9(70,80)
 C34             	1122.1397	.0660684	T1              	;R9(90,100,110,120,210,220)
 C36             	1106.778	.1146409	T1              	;R9(130,140,150,160,170,180,190,200)
 C39             	1133.8273	0	                	;
 C43             	1114.861	.0525134	T1              	;
 V15_B           	1178.3303	0	                	;
 V8_B            	1178.3303	0	                	;
 B2              	1168.9539	.005000	T1              	;R9(330)
 B5              	1162.4296	0	                	;
 B7              	1172.4852	.045000	T1              	;R9(340,350,360,370)
 V9_A            	1162.9301	0	                	;
 V9_B            	1162.9301	0	                	;
 B12             	1143.4296	0	                	;
 B18             	1125.3023	.0142716	T1              	;R8(1000)
 V10_A           	1124.0643	.015000000	T1              	;R8(1130,1140,1150)
 V10-11          	1124.0643	0	                	;
 V11_B           	1124.0643	.030000000	T1              	;R8(1120)
 B70             	1124.882	.0300000	T1              	;R8(1080,1090,1100,1110)
 B71             	1127.7315	.0290777	T1              	;R8(1020,1030,1040,1050,1060,1070)
 B73             	1132.2751	.0246507	T1              	;R8(900,930,1010)
 B77             	1122.9271	.0200000	T1              	;R8(850,860,870,880,890)
 B80             	1117.7401	.0100000	T1              	;R8(810,820,830,840)
 B82             	1112.7827	.0436630	T1              	;R8(780,790,800)
 B76             	1136.1735	.0212614	T1              	;R8(910,920)
 B23             	1116.5086	.0429432	T1              	;R8(1160,1170,1180,1190)
 V12_B           	1110.6217	.044609974	T1              	;R8(720,730,740,750)
 V12_A           	1110.6217	.010000000	T1              	;R8(1200,1210)
 B30             	1110.2824	.0100000	T1              	;R8(760,770)
 B34             	1103.6909	.0282393	T1              	;R8(590,600,610)
 B35             	1099.9208	.0170187	T1              	;R8(570,580)
 V13_A           	1103.0415	0	                	;
 V13_B           	1103.0415	0	                	;
 B26             	1103.8053	.0750000	T1              	;R8(670,680,690,700,710)
 B27             	1109.1807	.0786707	T1              	;R8(620,630,640,650,660)
 B37             	1093.9109	.0618499	T1              	;R8(540,550,560,430)
 B49             	1091.3153	.0212488	T1              	;R8(520,530)
 B51             	1098.9896	.0288159	T1              	;R8(440)
 B53             	1108.5085	.0250000	T1              	;R8(450,460,470)
 B58             	1113.2235	.0378099	T1              	;R8(480,490,500,510)
 B40             	1089.0804	.0358190	T1              	;R8(390,400,410,420)
 V14_A           	1085.1025	.053841207	T1              	;R8(370,380)
 V14_B           	1085.1025	.008749045	T1              	;R8(340,350,360)
 B42             	1082.2543	.0768998	T1              	;R8(290,300,310,320,330)
 B44             	1077.032	1.000E-4	T1              	;R8(280)
 B59             	1082.0183	.0100000	T1              	;R8(230,240)
 B60             	1084.1161	.0358190	T1              	;R8(250,260,270)
 B46             	1072.9966	.0100000	T1              	;R8(210,220)
 B62             	1080.0547	.0890826	T1              	;R8(30,40,50,60,70,160,170,180,190,200)
 B64             	1077.3446	.0087494	T1              	;R8(150)
 B66             	1078.7046	.0196332	T1              	;R8(80,90,100)
 B67             	1077.5296	.0214999	T1              	;R8(120,130,140)
 B65             	1076.418	.0087494	T1              	;R8(110)
 B48             	1070.0569	.0273102	T1              	;R8(20)
 C41             	1118.8587	.0268792	T1              	;R9(50,60)
 A27             	1116.6266	0	                	;
 V5_B            	1116.6266	0	                	;
 A33             	1101.0583	0	                	;
 A34             	1101.1183	.0219797	T1              	;R4(410,420)
 A31             	1107.8226	0	                	;
 A36             	1109.1466	.0371153	T1              	;R4(450,460,470,480,485,490)
 V6_A            	1106.4366	.02661000	T1              	;R4(500)
 A37             	1106.4366	0	                	;
 A35             	1105.1382	.0124850	T1              	;R4(430,440)
 A40             	1101.3254	.0477594	T1              	;R4(340,350,360,370,380)
 A41             	1101.665	.0782143	T1              	;R4(280,290,300,310,320,330)
 V7_A            	1099.7576	.01687000	T1              	;R4(250,260,270)
 A42             	1099.7576	0	                	;
 A38             	1098.304	.0172750	T1              	;R4(390,400)
 V18_B           	1112.8791	0	                	;
 A28_A           	1116.6266	0	                	;
 A29             	1113.4791	0	                	;
 V4_A            	1114.8791	0	                	;
 V3_A            	1114.6791	0	                	;
 T4_E1           	1115.2291	0	                	;Entrada 01, tanque 00004
 V19_A           	1092.445	0	                	;
 V19_B           	1092.445	0	                	;
 I.1             	1091.6221	0	                	;
 E6              	1080.6834	.003227	T2              	;R4(530)
 V20_A           	1078.301	0	                	;
 V20_B           	1078.301	0	                	;
 E9              	1062.75	.106386	T2              	;R4(980,990,995,1000,1010,1020,1030,1040,1050,1060,1070,1080)
 E7              	1078.0134	.017760	T2              	;R4(540,550,1140)
 E9.5            	1055.1279	.06539498	T2              	;R4(930,940,950,960,970,1090,1100,1110)
 E10             	1048.6728	.0027223	T2              	;R4(1180)
 E11             	1049.7823	0	                	;
 E13             	1057.8223	.0392700	T2              	;R4(1120,1130,1150)
 V21_A           	1048.9991	0	                	;
 V21_B           	1048.9991	0	                	;
 E12             	1050.1739	.0210446	T2              	;R4(1160,1170)
 E14             	1047.6798	.0089400	T2              	;R4(780)
 E15             	1055.011	.0515311	T2              	;R4(790,800,810,820,900,910,920)
 E16             	1057.91	.0979615	T2              	;R4(830,840,850,860,870,880,890)
 V22_A           	1046.9637	.020864596	T2              	;R4(770,760)
 V22_B           	1046.9637	0	                	;
 E18             	1044.2085	.0101000	T2              	;R6(10,20,30)
 E20             	1045.3655	.0997205	T2              	;R6(40,50,60,70,80,90,100,110)
 E21             	1050.5696	.0232050	T2              	;R6(120,130,140,460)
 E23             	1053.266	.2047845	T2              	;R6(150,160,170,180,190,200,210,360,430,440,450)
 E24             	1061.1067	.0180300	T2              	;R6(370,420)
 E25             	1069.7146	.0220520	T2              	;R6(380,390,400,410)
 E27             	1054.2123	.0492609	T2              	;R6(220,230,240,250,260,270,340,350)
 E29             	1056.5715	.1521146	T2              	;R6(280,290,300,330)
 E30             	1067.5184	.0115050	T2              	;R6(310,320)
 E32             	1045.6151	.0308291	T2              	;R6(470,480,490)
 E33             	1044.016	.0084700	T2              	;R6(500,560)
 E35             	1039.9038	.2795857	T2              	;R6(570,580,590), R7(20)
 E36             	1046.9905	.0481885	T2              	;R6(510,520,530,540,550)
 V23_A           	1060.3776	.008790000	T2              	;R6(600)
 V23_B           	1060.3776	.017305612	T2              	;R6(780,790)
 E37             	1060.4711	.0042162	T2              	;R6(800,810)
 E39             	1059.7666	.0450406	T2              	;R6(610,620,760,770)
 E40             	1067.743	.0596100	T2              	;R6(710,720,730,740,750)
 E42             	1059.7436	.0150150	T2              	;R6(630)
 E43             	1059.743	.0300300	T2              	;R6(640,650)
 E44             	1064.743	.0550837	T2              	;R6(660,670,680,690,700)
 V25_A           	1112.1761	0	                	;
 V25_B           	1112.1761	0	                	;
 F4              	1111.5701	0	                	;
 V24             	1116.5266	0	                	;
 F5              	1109.6104	0	                	;
 F10             	1093.7714	0	                	;
 F13             	1087.009	.0125334	T4              	;R5(530)
 F15             	1083.004	.0266269	T4              	;R5(500,510,520)
 F17             	1080.4339	.0257381	T4              	;R5(480,490)
 F18             	1095.9181	.0350000	T4              	;R5(400,410,420,430,440,450,460,470)
 F21             	1080.4107	.1157243	T4              	;R5(30,40,50,320,330,340,350), R3(550)
 F22             	1088.1318	.1157243	T4              	;R5(60,70,80,90,260,270,280,290,300,310)
 F23             	1093.7979	.1157243	T4              	;R5(100,110,120,190,200,210,220,230,240,250)
 F24             	1093.896	.0266269	T4              	;R5(130,140,150,160,170,180)
 V26_A           	1112.1761	0	                	;
 V26_B           	1112.1761	0	                	;
 V27_B           	1111.5701	0	                	;
 V27_A           	1111.5701	0	                	;
 V28_A           	1093.6894	0	                	;
 V28_B           	1093.6894	0	                	;
 G8              	1099.0312	0	                	;
 H1              	1093.8444	0	                	;
 V41_B           	1093.8444	0	                	;
 H4              	1085.5401	0	                	;
 V33_A           	1084.3398	0	                	;
 V33_B           	1084.3398	.015000000	T3              	;R4(240)
 H6              	1082.8935	.012931	T3              	;R4(210,220,230)
 H8              	1077.9861	.010000	T3              	;R4(180,190,200)
 V30_B           	1077.436	0	                	;
 H9              	1070.8295	.050000	T3              	;R4(120,130,140,150,160), R3(510,520,530,540)
 H11             	1063.7036	.0396000	T3              	;R4(110), R3(480,490,500)
 H34             	1074.6601	.0300000	T3              	;R3(560,570,580,590), R5(20)
 H36             	1073.2611	.0700056	T3              	;R3(600,610,620,630,640,650)
 H39             	1069.186	.0676968	T3              	;R3(660,670,10,20,30), R5(10), R8(10)
 H41             	1067.5439	.0398313	T3              	;R3(40,50,60), R2(850,860)
 V34_A           	1063.6068	.042127283	T3              	;R3(70,80,90,100,110), R2(840)
 V36_A           	1064.8116	0	                	;
 V36_B           	1064.8116	.010000000	T3              	;R2(1210,1220,1230)
 H55             	1067.1577	.1956595	T3              	;R2(780,790,800,810,820,830,1170,1180,1190,1200)
 H58             	1068.0248	.1411861	T3              	;R2(720,730,740,750,760,770,1100,1110,1120,1130,1140,1150,1160)
 H61             	1068.0776	.0782078	T3              	;R2(640,650,660,670,680,690,700,710,1060,1070,1080,1090)
 H64             	1065.9241	.1432167	T3              	;R2(620,630,410,420,430,440,450,460,470,1050)
 H78             	1061.268	.0253585	T3              	;R2(480,610)
 H79             	1056.7616	.0253585	T3              	;R2(590,600)
 V38_A           	1051.6477	.060000000	T3              	;R2(490,500,510)
 V38_B           	1051.6477	0	                	;
 H81             	1052.234	.0150000	T3              	;R2(520,570,580)
 H82             	1051.234	.0600000	T3              	;R2(530,540,550,560)
 V39_A           	1054.3991	0	                	;
 V39_B           	1054.3991	.128424300	T3              	;R1(1350,1360,1370,1380,1390,1400,1410,1420,1430)
 H67             	1062.2238	.0914078	T3              	;R2(1010,1020,1030,1040,390,400)
 H70             	1057.7263	.0450000	T3              	;R2(940,950,960,970,980,990,1000,360,370,380)
 H73             	1053.7783	.1348854	T3              	;R2(900,910,920,930,350)
 H75             	1051.423	.0450000	T3              	;R2(870,880,890)
 V37_A           	1050.404	0	                	;
 V37_B           	1050.404	0	                	;
 V35_B           	1050.2893	.053950925	T3              	;R3(280,290)
 V35_A           	1050.2893	0	                	;
 V34_B           	1063.6068	.018100597	T3              	;R3(120)
 H43             	1061.1567	.0421452	T3              	;R3(130,140), R2(1240,1250,1260)
 H44             	1058.6685	.1050000	T3              	;R3(150,160,170,180,190), R2(1270,1280)
 H45             	1056.2664	.0421272	T3              	;R3(200,210,220,230), R2(1290,1300)
 H47             	1053.107	.0300000	T3              	;R3(240,250,260,270), R2(1310,1320)
 H49             	1048.7327	.0100000	T3              	;R3(300,310,320)
 H50             	1045.6493	.0750000	T3              	;R3(330,340,350), R2(340)
 H52             	1043.1891	.0050000	T3              	;R3(360)
 H17             	1042.8157	.0150000	T3              	;R3(370)
 V31_B           	1043.1703	0	                	;
 V32_A           	1042.9549	.045000000	T3              	;R4(740,750,10)
 H15             	1053.492	.1650000	T3              	;R3(380,390,400,410,420), R4(20,30,40,50,60)
 H13             	1060.3181	.1049143	T3              	;R3(430,440,450), R4(70,80,90)
 H12             	1063.7036	.0351602	T3              	;R3(460,470), R4(100)
 H29             	1078.0492	.0129223	T3              	;R4(510,520,560,570)
 H27             	1072.5646	.0300000	T3              	;R4(580,590,600,610)
 H25             	1066.2836	.0238511	T3              	;R3(620,630)
 H22             	1058.0042	.0200000	T3              	;R4(640,650,660,670,680)
 H20             	1051.0558	.0262252	T3              	;R4(690,700,710)
 H18             	1045.609	.0450000	T3              	;R4(720,730)
 I3              	1085.8901	0	                	;
 I.6             	1066.4134	0	                	;
 I.12            	1045.4337	0	                	;
 V42_A           	1042.689	0	                	;
 V42_B           	1042.689	0	                	;
 I.40            	1042.9625	0	                	;
 V54_B           	1043.7125	.022154212	T3              	;R1(430)
 V43_A           	1041.7929	0	                	;
 V43_B           	1041.7929	.010000000	T3              	;R7(10)
 I.14            	1039.7275	.06000000	T3              	;R7(40,50)
 I.94            	1039.7339	.01500000	T3              	;R7(30)
 I.15            	1039.3214	.13500000	T3              	;R7(60,70,80,660,670)
 I.16            	1038.092	.09516242	T3              	;R7(90,100,110,120,130)
 V44_A           	1037.8533	0	                	;
 V44_B           	1037.8533	.045000000	T3              	;R7(140,370)
 V45_A           	1039.5167	.098795220	T3              	;R7(380,390,640,650)
 V45_B           	1039.5167	.090000000	T3              	;R7(400,410,620,630)
 I.36            	1045.1513	.18000000	T3              	;R7(420,430,500,510,520,600,610)
 I.37            	1044.949	.13500000	T3              	;R7(440,450,460,470,480,490)
 I.39            	1049.849	.03000000	T3              	;R7(530,540,580,590)
 V46_A           	1053.7739	.014815000	T3              	;R7(550,560,570)
 V46_B           	1053.7739	0	                	;
 I.18            	1035.8242	.01363635	T3              	;R7(360)
 I.23            	1031.6155	.00506615	T3              	;R7(150)
 I.24            	1029.3412	.02000000	T3              	;R7(160)
 I.25            	1028.227	.10186170	T3              	;R7(170)
 I.27            	1027.0128	.07500000	T3              	;R7(180,190,340,350)
 I.31            	1025.2976	.05865835	T3              	;R7(260,270,280,290,300)
 I.29            	1025.8534	.09000000	T3              	;R7(200,210,220,230,240,250,330)
 I.33            	1025.2216	.01439648	T3              	;R7(310,320)
 I.84            	1037.8055	.04069039	T3              	;R1(310,320,330,120)
 V55_B           	1037.769	0	                	;
 V56_A           	1037.8108	0	                	;
 V56_B           	1037.8108	.010000000	T3              	;R1(100,110)
 I.79            	1039.1726	.04000000	T3              	;R1(380,390,400,410,420)
 I.82            	1038.4656	.04000000	T3              	;R1(340,350,360,370)
 I.90            	1036.3392	.04239584	T3              	;R1(80,90)
 I.92            	1034.985	.02000000	T3              	;R1(50,60,70)
 I.93            	1035.027	.05400675	T3              	;R1(10,20,30,40)
 I.87            	1036.3831	.22500000	T3              	;R1(140,150,160,170,180,250,260,270,280)
 I.88            	1034.906	.04000000	T3              	;R1(190,200,210,220,230,240)
 I.85            	1037.2588	.05400675	T3              	;R1(290,300,130)
 V47_A           	1044.5031	.014899732	T3              	;R1(450)
 V47_B           	1044.5031	0	                	;
 I.42            	1044.0927	.16822560	T3              	;R1(460,470,480,490), R2(290,300,310,320,330)
 I.41            	1043.7328	.01489975	T3              	;R1(440)
 I.44            	1043.1473	.02000000	T3              	;R1(500,510), R2(270,280)
 V48_A           	1042.7444	.060000000	T3              	;R1(520), R2(150,160)
 V48_B           	1042.7444	0	                	;
 V52_B           	1042.7444	.014899732	T3              	;R1(530)
 V49_A           	1042.8715	0	                	;
 V49_B           	1042.8715	.086764264	T3              	;R1(1080,1090,1100), R2(100,140)
 V53_A           	1044.2674	0	                	;
 V53_B           	1044.2674	.005000000	T3              	;R2(260)
 I.77            	1045.799	.05000000	T3              	;R2(170,180,190,200,210,220,230,240,250)
 I.65            	1039.7052	.16340680	T3              	;R1(540,550,560,570,960,1050,1060,1070)
 I.66            	1036.944	.04294225	T3              	;R1(970,980,990,1030,1040)
 I.67            	1040.844	.06000000	T3              	;R1(1000,1010,1020)
 I.69            	1038.0967	.05500000	T3              	;R1(580,590,600,610,920,930,940,950)
 I.71            	1035.6291	.13500000	T3              	;R1(620,630,640,650,660,670,680,900,910)
 I.73            	1034.3538	.07799709	T3              	;R1(690,70,710,720,860,870,880,890)
 I.75            	1033.085	.07789353	T3              	;R1(730,740,750,820,830,840,850)
 I.76            	1032.2202	.09830901	T3              	;R1(760,770,780,790,800,810)
 I.46            	1042.8608	.13500000	T3              	;R1(1110,1120,1130), R2(50,60,70,80)
 I.48            	1041.0172	.06000000	T3              	;R1(1140,1150,1160)
 I.49            	1039.6548	.04198258	T3              	;R1(1200,1210,1220,1230,1240,1250)
 V51_B           	1039.7223	.010000000	T3              	;R2(10)
 I.58            	1040.7632	.06000000	T3              	;R2(20,30,40)
 V51_A           	1039.7223	0	                	;
 I.51            	1047.4934	.06000000	T3              	;R1(1260,1270,1280,1540)
 I.53            	1051.7724	.01000000	T3              	;R1(1290,1530)
 I.56            	1048.9091	.09940320	T3              	;R1(1440,1450,1460,1470,1480,1490,1500,1510,1520)
 I.57            	1056.6499	.03500000	T3              	;R1(1300,1310,1320,1330,1340)
 ET1_B           	1179.2403	0	                	;
 ET1_A           	1179.2403	0	                	;
 V5_A            	1116.6266	0	                	;
 V6_B            	1106.4366	0	                	;
 V7_B            	1099.7576	0	                	;
 V2_A            	1116.6266	0	                	;
 V2_B            	1116.6266	0	                	;
 V16_B           	1147.0684	0	                	;
 ST00004            	1112.2791	0	                	;
 ET00003            	1099.0312	0	                	;
 V29_B           	1096.9312	0	                	;
 V29_A           	1096.9312	0	                	;
 V30_A           	1077.436	0	                	;
 V31_A           	1043.1703	0	                	;
 V32_B           	1042.9549	0	                	;
 V40_A           	1096.9312	0	                	;
 V40_B           	1096.9312	0	                	;
 V50_A           	1039.4747	0	                	;
 V50_B           	1039.4747	.060000000	T3              	;R1(1170,1180,1190)
 I.62            	1043.0006	.04198258	T3              	;R2(90,110,120,130)
 V52_A           	1042.7444	0	                	;
 V54_A           	1043.7125	0	                	;
 V55_A           	1037.769	0	                	;
 V57_B           	1192.1413	0	                	;
 V58_A           	1081.0787	0	                	;
 V58_B           	1081.0787	.030000000	T4              	;R5(370,380,390)
 V59_A           	1080.433	0	                	;
 V59_B           	1080.433	.060000000	T4              	;R5(360), R4(170)
 Macro_A         	1192.1413	0	                	;
 Macro_B         	1192.1413	0	                	;
1	1162.9301	0	                	;
2	1162.9301	0	                	;
 
[RESERVOIRS]
;ID              	Head        	Pattern
 C_Contacto      	1194.7393   	                	;30 cm del borde superior al nivel máximo
 
[TANKS]
;ID              	Elevation   	InitLevel   	MinLevel    	MaxLevel    	Diameter    	MinVol      	VolCurve
 TANQUE1         	1178.4103   	1.958       	0           	2.085       	5.8306      	0           	                	;
 TANQUE2         	1113.1391   	1.805       	0           	1.928       	7.2207      	0           	                	;
 TANQUE4         	1112.5291   	2.14        	0           	2.64        	9.8163      	0           	                	;
 TANQUE3         	1096.9312   	1.873       	0           	1.90        	6.0345      	0           	                	;
 
[PIPES]								
;ID              	Node1           	Node2           	Length      	Diameter    	Roughness   	MinorLoss   	Status	
T2	V1_B	A5	97.03	84.66	136.000	11.62765	Open	;Codos(3)+Tlat(1)				
T85	D_2	D3	12.1	45.97	136.000	.58000000	Open	;Reducción				
T86	D3	D8	162.34	31.8	136.000	1.0000000	Open	;Codo(1)				
T87	D8	V17_A	115.5	31.8	136.000	.10000000	Open	;				
T88	V17_B	D14	59.87	31.8	136.000	.90000000	Open	;Codo45(2)				
T89	D14	D15	18.83	31.8	136.000	.10000000	Open	;				
T90	D15	D16	28.01	31.8	136.000	.10000000	Open	;				
T91	D16	D18	57.49	25.15	136.000	.10000000	Open	;				
T92	D18	D19	53.16	25.15	136.000	.10000000	Open	;				
T3	A5	A10	156.66	84.66	136.000	8.531158	Open	;				
T4	A10	A13	72.43	84.66	136.000	4.340752	Open	;Codo45(1)				
T5	A13	A19	132.39	84.66	136.000	12.48456	Open	;Curvas	-4			
T6	A19	A24	92.29	84.66	136.000	4.867891	Open	;				
T7	A24	A26	33.63	84.66	136.000	2.604006	Open	;Codo(1)				
T70	C1	C6	145.54	45.97	136.000	.10000000	Open	;				
T71	C6	V16_A	58.91	45.97	136.000	.10000000	Open	;				
T73	C8	C12	42.03	31.8	136.000	.10000000	Open	;				
T74	C12	C18	128.21	31.8	136.000	.10000000	Open	;				
T75	C18	C21	72.06	31.8	136.000	.10000000	Open	;				
T76	C21	C23	51	31.8	136.000	.10000000	Open	;				
T77	C8	C26	37.54	31.8	136.000	1.0000000	Open	;Codo				
T78	C26	C30	80.42	31.8	136.000	2.0800000	Open	;Tbil(1)	+	Red(1)		
T79	C30	C34	60.85	31.8	136.000	.28000000	Open	;Red(1)				
T80	C34	C36	59.1	25.15	136.000	.10000000	Open	;				
T81	C30	C39	47.19	25.15	136.000	1.1800000	Open	;Codo	+	Red		
T69	V15_B	C1	12	45.97	136.000	1.9000000	Open	;Codo(2)				
T28	V8_B	B2	50.89	69.55	136.000	1.0000000	Open	;Codo(1)				
T29	B2	B5	86	69.55	136.000	1.7700000	Open	;Tlat	+	Red(1)		
T30	B5	B7	62.84	25.15	136.000	.10000000	Open	;				
T31	B5	V9_A	9.61	69.55	136.000	7.1301730	Open	;				
T32	V9_B	B12	98.77	69.55	136.000	7.1301730	Open	;Codos(2)	+	Red(1)		
T33	B12	B18	111.66	57.45	136.000	.28000000	Open	;Red(1)				
T34	B18	V10_A	38.17	45.97	136.000	2.0774930	Open	;Tbil(1)+	Red(1)			
T62	V11_B	B70	62.1	31.8	136.000	.10000000	Open	;				
T63	B70	B71	25.16	31.8	136.000	.10000000	Open	;				
T64	B71	B73	30.34	31.8	136.000	1.9500000	Open	;Tlat(1)	+	red(2)		
T65	B73	B76	82.02	19.76	136.000	.10000000	Open	;				
T66	B73	B77	26.69	25.15	136.000	.10000000	Open	;				
T67	B77	B80	31.47	25.15	136.000	.10000000	Open	;				
T68	B80	B82	46.27	25.15	136.000	.10000000	Open	;				
T35	V10-11	B23	42.73	45.97	136.000	.10000000	Open	;				
T36	B23	V12_A	48.73	45.97	136.000	2.3599870	Open	;Tlat(1)	+	Red(2)+Codo45(1)		
T41	V12_B	B30	44.83	31.8	136.000	.10000000	Open	;				
T42	B30	B34	50.69	31.8	136.000	.90382470	Open	;Codo45(2)				
T40	V13_B	B35	8.59	25.15	136.000	.10000000	Open	;Red(1)				
T43	B34	B35	30.24	31.8	136.000	1.5780950	Open	;Tlat(1)	+	red(1)		
T37	V12_B	B26	34.68	25.15	136.000	1.0000000	Open	;Codo(1)				
T38	B26	B27	28.51	25.15	136.000	.10000000	Open	;				
T39	B27	V13_A	18.55	25.15	136.000	.10000000	Open	;				
T44	B35	B37	55.34	31.8	136.000	1.5867150	Open	;Tlat	+	red		
T51	B37	B49	44.08	25.15	136.000	.10000000	Open	;				
T52	B49	B51	75.46	25.15	136.000	.10000000	Open	;				
T53	B51	B53	48.96	25.15	136.000	.10000000	Open	;				
T54	B53	B58	105.66	25.15	136.000	.10000000	Open	;				
T45	B37	B40	55.22	31.8	136.000	.10000000	Open	;				
T46	B40	V14_A	40.2	31.8	136.000	.10000000	Open	;				
T47	V14_B	B42	30.13	31.8	136.000	.10000000	Open	;				
T48	B42	B44	37.37	31.8	136.000	1.5800000	Open	;Tlat(1)	+	Red(1)		
T55	B44	B59	15.81	25.15	136.000	.28000000	Open	;Red(1)				
T49	B44	B46	29.29	31.8	136.000	1.5800000	Open	;Tlat(1)	+	Red(1)		
T57	B46	B62	42.69	31.8	136.000	.10000000	Open	;				
T58	B62	B64	38.1	31.8	136.000	.10000000	Open	;				
T59	B64	B65	4.99	31.8	136.000	1.4000000	Open	;Tlat				
T60	B65	B66	16.85	31.8	136.000	.10000000	Open	;				
T61	B65	B67	18.03	31.8	136.000	.10000000	Open	;				
T50	B46	B48	29.15	25.15	136.000	.10000000	Open	;				
T82	C39	C41	59.24	19.76	136.000	.10000000	Open	;				
T83	C41	C43	52.6	19.76	136.000	.10000000	Open	;				
T8	A26	A27	8.6	84.66	136.000	5.328751	Open	;Tlat	+	Red(2)		
T12	A33	A34	35.5	45.97	136.000	3.3550000	Open	;Tlat(1)	+	red(1)		
T10	V5_B	A31	38.85	45.97	136.000	4.7425000	Open	;Codos(3)				
T11	A31	A33	36.64	45.97	136.000	2.8320000	Open	;Codo(1)				
T15	A36	V6_A	33.61	45.97	136.000	1.7805000	Open	;				
T13	A34	A35	26.31	45.97	136.000	1.4155000	Open	;				
T14	A35	A36	30.27	45.97	136.000	1.6135000	Open	;				
T19	A40	A41	26	40.15	136.000	1.4000000	Open	;				
T20	A41	V7_A	33.55	40.15	136.000	1.7759960	Open	;				
T17	A34	A38	25.65	40.15	136.000	2.2825000	Open	;Codo(1)				
T18	A38	A40	32.15	40.15	136.000	1.7075000	Open	;				
T93	V18_B	A37	38.78	69.55	143.220	3.3717150	Open	;Codos(2)	+	Red	+	Tlat
T94	A37	A42	39.55	69.55	143.220	1.5777290	Open	;Tlat	+	red		
T27	A29	V4_A	3.5	57.45	136.000	11.026670	Open	;Codo(2)	,	Vcom(1)		
T25	A28_A	A29	15	57.45	136.000	4.8053710	Open	;Codo(3),	Tlat	-2		
T26	A29	V3_A	2	57.45	136.000	.60000000	Open	;Codo(1),	Vcom(1)			
T24	A28_A	T4_E1	17	57.45	136.000	6.3019540	Open	;Codos(2)				
T95	A42	V19_A	44.01	69.55	143.220	1.5777290	Open	;Tlat	desconocido			
T204	V19_B	I.1	9.54	57.45	136.000	1.40000000	Open	;Tlat				
T96	V19_A	E6	72.04	69.55	143.220	1.5777290	Open	;Tlat	desconocido			
T97	E6	E7	60.06	45.97	143.220	.10000000	Open	;				
T98	E6	V20_A	11.84	69.55	143.220	.10000000	Open	;				
T99	V20_B	E9	34.6	69.55	143.220	1.8896320	Open	;Codo(2)				
T100	E9	E9.5	46.65	69.55	143.220	.100000000	Open	;				
T101	E9.5	E10	39.5077	69.55	143.220	1.89643200	Open	;Tbil				
T102	E10	V21_A	5.01	69.55	143.220	.470000000	Open	;Red				
T103	V21_B	E11	12.03	31.8	143.220	1.58000000	Open	;Tlat	desconocido			
T104	E11	E12	6.01	31.8	143.220	.100000000	Open	;				
T105	E11	E13	53.01	25.15	143.220	.100000000	Open	;				
T106	E10	E14	21.02	69.55	143.220	1.76667700	Open	;Tlat	+	red		
T107	E14	E15	35.76	40.15	143.220	1.00000000	Open	;Codo				
T108	E15	E16	33.13	40.15	143.220	.100000000	Open	;				
T109	E14	V22_A	36.81	69.55	143.220	.470063100	Open	;Red				
T110	V22_B	E18	23.7	40.15	143.220	2.43550100	Open	;Codo+	tlat	+	red	
T111	E18	E20	42.78	31.8	143.220	.982056700	Open	;Codo				
T112	E20	E21	16.83	31.8	143.220	1.84357300	Open	;Tbil				
T113	E21	E23	39.1	31.8	143.220	1.77000000	Open	;tlat	desconocido			
T114	E23	E24	22.42	19.76	143.220	.100000000	Open	;				
T115	E24	E25	18.17	19.76	143.220	.100000000	Open	;				
T116	E23	E27	27.02	31.8	143.220	.100000000	Open	;				
T117	E27	E29	26.11	31.8	143.220	.280000000	Open	;Red				
T118	E29	E30	41.47	25.15	143.220	.100000000	Open	;				
T119	E21	E32	30.41	31.8	143.220	1.39562600	Open	;tlat				
T120	E32	E33	10.13	31.8	143.220	1.40000000	Open	;Tlat				
T121	E33	E35	45.19	31.8	143.220	.100000000	Open	;				
T122	E33	E36	26.17	31.8	143.220	.100000000	Open	;				
T123	E32	V23_A	34.34	31.8	143.220	1.89534300	Open	;Tbil				
T124	V23_B	E37	4.5	31.8	143.220	.100000000	Open	;				
T125	V23_B	E39	23.51	31.8	143.220	.100000000	Open	;				
T126	E39	E40	32.01	31.8	143.220	.100000000	Open	;				
T127	E39	E42	24	31.8	143.220	1.57705500	Open	;Tlat	+	red		
T128	E42	E43	5	31.8	143.220	.100000000	Open	;				